Version 4.1
SHEET 1 3844 5140
WIRE -512 224 -576 224
WIRE -480 224 -512 224
WIRE -576 256 -576 224
WIRE -480 256 -480 224
WIRE -512 512 -576 512
WIRE -480 512 -512 512
WIRE -576 544 -576 512
WIRE -480 544 -480 512
WIRE -512 752 -576 752
WIRE -480 752 -512 752
WIRE -576 784 -576 752
WIRE -480 784 -480 752
WIRE 2768 848 2656 848
WIRE 2944 848 2848 848
WIRE 2768 960 2656 960
WIRE 2944 960 2944 848
WIRE 2944 960 2848 960
WIRE -496 992 -576 992
WIRE -480 992 -496 992
WIRE -480 1024 -480 992
WIRE -576 1040 -576 992
WIRE 2768 1072 2656 1072
WIRE 2944 1072 2944 960
WIRE 2944 1072 2848 1072
WIRE 3184 1120 3072 1120
WIRE 3440 1120 3264 1120
WIRE 2768 1184 2656 1184
WIRE 2944 1184 2944 1072
WIRE 2944 1184 2848 1184
WIRE -480 1248 -576 1248
WIRE -464 1248 -480 1248
WIRE -576 1264 -576 1248
WIRE -464 1280 -464 1248
WIRE 2768 1296 2656 1296
WIRE 2944 1296 2944 1184
WIRE 2944 1296 2848 1296
WIRE 3072 1296 3072 1120
WIRE 3072 1296 2944 1296
WIRE 3152 1296 3072 1296
WIRE 3440 1312 3440 1120
WIRE 3440 1312 3280 1312
WIRE 3600 1312 3440 1312
WIRE 3632 1312 3600 1312
WIRE 3152 1328 3072 1328
WIRE 3600 1328 3600 1312
WIRE 3072 1376 3072 1328
WIRE -464 1392 -464 1360
WIRE 2768 1408 2656 1408
WIRE 2944 1408 2944 1296
WIRE 2944 1408 2848 1408
WIRE 2768 1520 2656 1520
WIRE 2944 1520 2944 1408
WIRE 2944 1520 2848 1520
WIRE 2768 1632 2656 1632
WIRE 2944 1632 2944 1520
WIRE 2944 1632 2848 1632
WIRE 2768 1760 2656 1760
WIRE 2944 1760 2944 1632
WIRE 2944 1760 2848 1760
WIRE 2768 1872 2656 1872
WIRE 2944 1872 2944 1760
WIRE 2944 1872 2848 1872
WIRE 2768 2000 2656 2000
WIRE 2944 2000 2944 1872
WIRE 2944 2000 2848 2000
FLAG -576 864 0
FLAG -576 624 0
FLAG -512 512 VCC
FLAG -512 752 VEE
FLAG -576 336 0
FLAG -512 224 Vin
FLAG -576 1120 0
FLAG 3216 1248 VCC
FLAG 3216 1376 VEE
FLAG 2656 848 vout_1
FLAG 2656 960 vout_2
FLAG 3072 1376 0
FLAG 2656 1072 vout_3
FLAG 2656 1184 vout_4
FLAG 3632 1312 vsum
FLAG 2656 1296 vout_5
FLAG 2656 1408 vout_6
FLAG 2656 1520 vout_7
FLAG 2656 1632 vout_8
FLAG -576 1344 0
FLAG -480 1248 v_trans
FLAG 2656 1760 vout_9
FLAG 2656 1872 vout_10
FLAG -496 992 V_AC
FLAG -464 1392 0
FLAG -480 336 0
FLAG -480 624 0
FLAG -480 864 0
FLAG -480 1104 0
FLAG 3600 1408 0
FLAG 2656 2000 vout_11
SYMBOL voltage -576 240 R0
WINDOW 3 -37 193 Left 2
SYMATTR Value wavefile="Radiohead - Weird Fishes"
SYMATTR InstName V9
SYMBOL voltage -576 528 R0
WINDOW 123 0 0 Left 0
WINDOW 39 0 0 Left 0
SYMATTR InstName V4
SYMATTR Value 5
SYMBOL voltage -576 768 R0
WINDOW 123 0 0 Left 0
WINDOW 39 0 0 Left 0
SYMATTR InstName V5
SYMATTR Value -5
SYMBOL voltage -576 1024 R0
WINDOW 123 24 124 Left 2
WINDOW 39 0 0 Left 0
SYMATTR Value2 AC 1
SYMATTR InstName V3
SYMATTR Value ""
SYMBOL sym\\OPAx134 3216 1312 R0
SYMATTR InstName U7
SYMBOL res 3280 1104 R90
WINDOW 0 0 56 VBottom 2
WINDOW 3 32 56 VTop 2
SYMATTR InstName R13
SYMATTR Value 7.6k
SYMBOL res 2864 832 R90
WINDOW 0 0 56 VBottom 2
WINDOW 3 32 56 VTop 2
SYMATTR InstName R14
SYMATTR Value 11k
SYMBOL res 2864 944 R90
WINDOW 0 0 56 VBottom 2
WINDOW 3 32 56 VTop 2
SYMATTR InstName R17
SYMATTR Value 10k
SYMBOL res 2864 1056 R90
WINDOW 0 0 56 VBottom 2
WINDOW 3 32 56 VTop 2
SYMATTR InstName R24
SYMATTR Value 10k
SYMBOL res 2864 1168 R90
WINDOW 0 0 56 VBottom 2
WINDOW 3 32 56 VTop 2
SYMATTR InstName R33
SYMATTR Value 10k
SYMBOL res 2864 1280 R90
WINDOW 0 0 56 VBottom 2
WINDOW 3 32 56 VTop 2
SYMATTR InstName R41
SYMATTR Value 10k
SYMBOL res 2864 1392 R90
WINDOW 0 0 56 VBottom 2
WINDOW 3 32 56 VTop 2
SYMATTR InstName R49
SYMATTR Value 10k
SYMBOL res 2864 1504 R90
WINDOW 0 0 56 VBottom 2
WINDOW 3 32 56 VTop 2
SYMATTR InstName R56
SYMATTR Value 10k
SYMBOL res 2864 1616 R90
WINDOW 0 0 56 VBottom 2
WINDOW 3 32 56 VTop 2
SYMATTR InstName R65
SYMATTR Value 10k
SYMBOL voltage -576 1248 R0
WINDOW 123 0 0 Left 0
WINDOW 39 0 0 Left 0
SYMATTR InstName V13
SYMATTR Value PULSE(0 1 50m 10m 10m 50m)
SYMBOL res 2864 1744 R90
WINDOW 0 0 56 VBottom 2
WINDOW 3 32 56 VTop 2
SYMATTR InstName R72
SYMATTR Value 10k
SYMBOL res 2864 1856 R90
WINDOW 0 0 56 VBottom 2
WINDOW 3 32 56 VTop 2
SYMATTR InstName R81
SYMATTR Value 10k
SYMBOL res -496 240 R0
SYMATTR InstName R82
SYMATTR Value 1Meg
SYMBOL res -496 528 R0
SYMATTR InstName R83
SYMATTR Value 1Meg
SYMBOL res -496 768 R0
SYMATTR InstName R84
SYMATTR Value 1Meg
SYMBOL res -480 1264 R0
SYMATTR InstName R85
SYMATTR Value 1Meg
SYMBOL res -496 1008 R0
SYMATTR InstName R86
SYMATTR Value 1Meg
SYMBOL res 3584 1312 R0
SYMATTR InstName R87
SYMATTR Value 1Meg
SYMBOL res 2864 1984 R90
WINDOW 0 0 56 VBottom 2
WINDOW 3 32 56 VTop 2
SYMATTR InstName R94
SYMATTR Value 11k
TEXT 1088 32 Left 2 !.wave "C:\\Analog Eq\\Analog-Equalizer\\LTSpice\\wav_out\\test.wav" 16 44.1k V(vsum)
TEXT -608 1432 Left 2 ;.ac dec 1000 10 100k
TEXT -608 1464 Left 2 !.tran 10
TEXT 1088 56 Left 2 !.wave "C:\\Analog Eq\\Analog-Equalizer\\LTSpice\\wav_out\\input.wav" 16 44.1k V(Vin)
